Version 4
SHEET 1 1400 772
WIRE 48 80 48 32
WIRE 752 176 752 128
WIRE 672 192 640 192
WIRE 704 192 672 192
WIRE -96 208 -144 208
WIRE 48 208 48 160
WIRE 48 208 -16 208
WIRE 224 208 48 208
WIRE 848 208 800 208
WIRE 896 208 848 208
WIRE 224 224 224 208
WIRE 672 224 672 192
WIRE 672 224 640 224
WIRE 704 224 672 224
WIRE 896 240 896 208
WIRE 48 256 48 208
WIRE -144 272 -144 208
WIRE 672 304 672 224
WIRE 752 320 752 240
WIRE 48 416 48 336
WIRE 896 432 896 304
FLAG 48 32 vdda
FLAG 224 224 gnda
FLAG 48 416 vssa
FLAG -144 272 0
FLAG 896 432 gnda
FLAG 752 128 vdda
FLAG 752 320 vssa
FLAG 640 192 inp
FLAG 640 224 inn
FLAG 848 208 out
FLAG 672 304 0
SYMBOL voltage 48 64 R0
SYMATTR InstName V1
SYMATTR Value 1.65
SYMBOL voltage 48 240 R0
SYMATTR InstName V2
SYMATTR Value 1.65
SYMBOL res 0 192 R90
WINDOW 0 0 56 VBottom 2
WINDOW 3 32 56 VTop 2
SYMATTR InstName R1
SYMATTR Value 0.1
SYMBOL cap 880 240 R0
SYMATTR InstName C2
SYMATTR Value 10p
SYMBOL CMOSopamp 736 208 R0
SYMATTR InstName X2
TEXT 112 528 Left 2 !.MODEL PMOS1 PMOS (Kp=58u Vto=-0.5 W=2.2u L=2u lambda=0.04)\n.MODEL PMOS2 PMOS (Kp=58u Vto=-0.5 W=2.2u L=2u lambda=0.04)\n.MODEL NMOS3 NMOS (Kp=170u Vto=0.5 W=6u L=2u lambda=0.002)\n.MODEL NMOS4 NMOS (Kp=170u Vto=0.5 W=6u L=2u lambda=0.002)\n.MODEL NMOS5 NMOS (Kp=170u Vto=0.5 W=3.2u L=1u lambda=0.015)\n.MODEL NMOS6 NMOS (Kp=170u Vto=0.5 W=3.2u L=1u lambda=0.015)\n.MODEL PMOS7 PMOS (Kp=58u Vto=-0.5 W={W7}L=1u lambda=0.005)\n.MODEL NMOS8 NMOS (Kp=170u Vto=0.5 W=6.8765771u L=1u lambda=0.015)
TEXT 472 344 Left 2 !.op
TEXT 472 408 Left 2 !.step param W7 2u 12u 0.1u
