Version 4
SHEET 1 1400 740
WIRE 80 80 80 32
WIRE 784 176 784 128
WIRE 704 192 672 192
WIRE 736 192 704 192
WIRE -64 208 -112 208
WIRE 256 208 16 208
WIRE 880 208 832 208
WIRE 928 208 880 208
WIRE 256 224 256 208
WIRE 720 224 672 224
WIRE 736 224 720 224
WIRE 928 240 928 208
WIRE 80 256 80 160
WIRE -112 272 -112 208
WIRE 704 272 704 192
WIRE 720 272 720 224
WIRE 720 272 704 272
WIRE 704 288 704 272
WIRE 784 320 784 240
WIRE 80 416 80 336
WIRE 928 432 928 304
FLAG 80 32 vdda
FLAG 256 224 gnda
FLAG 80 416 vssa
FLAG -112 272 0
FLAG 928 432 gnda
FLAG 784 128 vdda
FLAG 784 320 vssa
FLAG 672 192 inp
FLAG 672 224 inn
FLAG 880 208 out
FLAG 704 288 0
SYMBOL voltage 80 64 R0
SYMATTR InstName V1
SYMATTR Value 1.65
SYMBOL voltage 80 240 R0
SYMATTR InstName V2
SYMATTR Value 1.65
SYMBOL res 32 192 R90
WINDOW 0 0 56 VBottom 2
WINDOW 3 32 56 VTop 2
SYMATTR InstName R1
SYMATTR Value 0.1
SYMBOL cap 912 240 R0
SYMATTR InstName C2
SYMATTR Value 10p
SYMBOL CMOSopamp 768 208 R0
SYMATTR InstName X2
TEXT 144 528 Left 2 !.MODEL PMOS1 PMOS (Kp=58u Vto=-0.5 W=2.2u L=2u lambda=0.04)\n.MODEL PMOS2 PMOS (Kp=58u Vto=-0.5 W=2.2u L=2u lambda=0.04)\n.MODEL NMOS3 NMOS (Kp=170u Vto=0.5 W=6u L=2u lambda=0.002)\n.MODEL NMOS4 NMOS (Kp=170u Vto=0.5 W=6u L=2u lambda=0.002)\n.MODEL NMOS5 NMOS (Kp=170u Vto=0.5 W=3.2u L=1u lambda=0.015)\n.MODEL NMOS6 NMOS (Kp=170u Vto=0.5 W=3.2u L=1u lambda=0.015)\n.MODEL PMOS7 PMOS (Kp=58u Vto=-0.5 W=100u L=1u lambda=0.005)\n.MODEL NMOS8 NMOS (Kp=170u Vto=0.5 W={W8} L=1u lambda=0.015)
TEXT 504 344 Left 2 !.op
TEXT 504 408 Left 2 !.step param W8 2u 12u 0.1u
