Version 4
SHEET 1 1080 1196
WIRE 320 16 -64 16
WIRE 496 16 496 -64
WIRE 496 16 320 16
WIRE 688 16 496 16
WIRE 864 16 688 16
WIRE 688 64 688 16
WIRE 752 64 688 64
WIRE 320 80 320 16
WIRE 320 80 256 80
WIRE 688 80 688 64
WIRE 448 96 368 96
WIRE 640 96 448 96
WIRE -64 112 -64 16
WIRE 256 128 256 80
WIRE 320 128 256 128
WIRE 752 128 752 64
WIRE 752 128 688 128
WIRE 688 176 688 160
WIRE 864 224 864 16
WIRE 944 224 864 224
WIRE 864 256 864 224
WIRE 320 272 320 192
WIRE 448 272 448 96
WIRE 448 272 320 272
WIRE 688 272 688 176
WIRE 816 272 688 272
WIRE 944 304 944 224
WIRE 944 304 864 304
WIRE 320 368 320 272
WIRE 688 368 688 272
WIRE 512 416 512 336
WIRE 512 416 320 416
WIRE 688 416 512 416
WIRE 752 448 736 448
WIRE 864 448 864 352
WIRE 1024 448 864 448
WIRE 208 464 208 448
WIRE 208 496 208 464
WIRE 272 496 272 448
WIRE 272 496 208 496
WIRE 320 512 320 464
WIRE 512 512 320 512
WIRE 688 512 688 464
WIRE 688 512 512 512
WIRE 752 512 752 448
WIRE 800 512 800 448
WIRE 800 512 752 512
WIRE 864 560 864 448
WIRE 864 560 832 560
WIRE -64 576 -64 192
WIRE 176 576 -64 576
WIRE 512 576 512 512
WIRE 512 576 464 576
WIRE 464 640 464 576
WIRE 832 656 832 560
WIRE 880 656 832 656
WIRE 576 688 464 688
WIRE 880 688 880 656
WIRE -64 704 -64 576
WIRE 64 704 -64 704
WIRE 1008 736 880 736
WIRE 64 752 -48 752
WIRE 176 784 176 576
WIRE 176 784 112 784
WIRE 304 784 176 784
WIRE 416 784 416 720
WIRE 416 784 304 784
WIRE 464 784 464 736
WIRE 576 784 576 688
WIRE 576 784 464 784
WIRE 304 848 304 784
WIRE 832 848 832 768
WIRE 832 848 304 848
WIRE 880 848 880 784
WIRE 1008 848 1008 736
WIRE 1008 848 880 848
WIRE -48 864 -48 752
WIRE 64 864 64 800
WIRE 64 864 -48 864
WIRE 64 992 64 864
WIRE 464 992 464 784
WIRE 464 992 64 992
WIRE 880 992 880 848
WIRE 880 992 464 992
WIRE 464 1072 464 992
FLAG 496 -64 vdda
FLAG 1024 448 out
FLAG 800 448 inp
FLAG 208 464 inn
FLAG 512 336 vssa
FLAG 464 1072 vssa
SYMBOL current -64 112 R0
WINDOW 123 0 0 Left 0
WINDOW 39 0 0 Left 0
SYMATTR InstName Ibias
SYMATTR Value 45µ
SYMBOL pmos4 368 176 R180
SYMATTR InstName M1
SYMATTR Value PMOS1
SYMBOL pmos4 640 176 M180
SYMATTR InstName M2
SYMATTR Value PMOS2
SYMBOL pmos4 816 352 M180
SYMATTR InstName M7
SYMATTR Value PMOS7
SYMBOL nmos4 272 368 R0
SYMATTR InstName M3
SYMATTR Value NMOS3
SYMBOL nmos4 736 368 M0
WINDOW 3 65 65 Left 2
SYMATTR InstName M4
SYMATTR Value NMOS4
SYMBOL nmos4 112 704 M0
SYMATTR InstName M5
SYMATTR Value NMOS5
SYMBOL nmos4 416 640 R0
SYMATTR InstName M6
SYMATTR Value NMOS6
SYMBOL nmos4 832 688 R0
SYMATTR InstName M8
SYMATTR Value NMOS8
